79
XYZ file generated by Avogadro.
N     -4.94717    0.24599    0.00000
C     -2.53903    0.96499   -0.00001
H     -5.46804   -6.46942   -2.21727
C     -4.96418   -2.33266   -0.52036
C      0.37176   -0.11074   -0.00005
C     -3.07575    3.62335    0.66993
C      2.53905    0.94918   -0.00011
H      0.42569   -1.17938   -0.00004
C      5.49736   -0.26894   -0.00022
H      2.50468    2.01862   -0.00010
C      7.42739    1.29722   -0.00026
H      5.65254   -1.32762   -0.00024
N      9.80039   -0.01582   -0.00030
H     14.27775    7.67519   -0.36325
C     14.37094    2.99528   -1.33767
C      7.90952    3.63912    0.35883
H      6.55014    1.72620   -0.43765
C     10.32078    4.00120   -0.15215
C     10.23815   -2.37745   -0.58723
C      5.45312    3.61315    0.94825
C     11.89353    2.63456   -0.81112
H      7.39972    5.96526    1.87183
C     11.40025    6.39599    0.07339
C      7.71710    5.85401    0.85606
H      5.07052    2.61992    0.83870
H      5.32588    3.93472    1.96083
H      4.92255    4.27383    0.29488
H      8.66483    6.33283    0.72403
H      6.99638    6.30421    0.20585
C     13.87349    6.68982   -0.46582
C     15.42096    4.92147   -1.20037
H     10.80926    7.23126    0.38636
H     14.93928    2.14361   -1.64840
H     16.45736    5.06953   -1.42138
C     -5.93715    4.15855    1.47175
H    -12.58227    3.62444    2.97316
C     -3.06911    5.92109    1.13567
C     -7.47622    1.60794    1.32553
P     -5.28606  -11.86302   -2.38181
H    -11.02423    6.99611    3.28240
C    -10.15281    1.79172    2.01174
H     -0.21823    4.92848   -0.67284
H      0.18518    4.58963    0.99314
C     -2.82579   -4.75231   -1.53010
C      9.02234   -5.06667   -0.83962
C     -7.82020    6.00023    2.30294
C    -10.50112    6.11441    2.97603
C    -11.54511    3.76453    2.75051
H    -10.68936    0.86777    1.95389
H     -7.37516    6.96918    2.39222
C     -0.28208    4.20341    0.11144
H     -4.04957    6.22704    1.43568
H     -2.37536    6.12304    1.92487
H     -2.77937    6.46187    0.25902
H      0.21496    3.30560   -0.19153
H     -5.32715   -2.73647    0.40165
H     -5.35212   -2.18705   -1.50687
C     -4.75642   -6.75339   -1.47037
H     -2.42676   -4.58080   -2.50798
H     -1.92629   -4.89946   -0.96961
O     -3.94868   -9.36115   -2.19653
H     10.63228   -2.25587   -1.57455
H     10.52515   -2.58812    0.42180
C     11.28681   -7.54944   -1.89453
H      8.62960   -5.35082    0.11427
H      8.26226   -4.99734   -1.58953
O     10.02225   -9.97356   -2.08137
H     -5.13763   -6.80187   -0.47176
H     11.68188   -7.28272   -2.85249
H     12.07894   -7.62448   -1.17912
P     11.51068  -12.31143   -2.91693
O     -2.71611  -11.83577   -2.99832
O     -5.48435  -15.01502   -2.97543
O     13.61031  -12.21425   -3.40594
O     -8.12890  -11.81568   -1.68341
H     -5.18028  -15.19076   -3.85813
O      9.15800  -12.27220   -2.33887
O     10.68692  -15.00723   -3.26517
H     11.42689  -15.53009   -3.55074
